534
 energy: -819.246349303019 gnorm: 0.000855267271 xtb: 6.3.2 (452493c)
P         5.31119996297004    0.61632619662934    1.95798730146596
N         5.94304627729259    1.67810867188279    0.76709869239882
P         4.57194997432618    2.62995660020775    0.31491732843941
C         4.80112388736387    4.23181325962493    1.16696162996072
C         5.93912863641297    5.00692537270492    0.94598197756355
C         6.12098606826900    6.18409986313807    1.64577307161630
C         5.17726258912285    6.64079929244097    2.56398229914981
C         4.04064753104008    5.86491381744354    2.75632603435746
C         3.85253637947204    4.67739427027978    2.07678918048478
H         2.95725316207851    4.10097972420823    2.24838522827259
H         3.28464605497537    6.18987580147525    3.45160969301021
Si        5.41513669652911    8.28008662457204    3.50382115008742
C         5.22898658295826    9.75151158718695    2.29305022648416
C         5.97432801615563    9.58613901428775    0.97092671806344
C         5.78625628588831   10.79318425229473    0.05399201368371
C         6.51744013728008   10.61852696708435   -1.27113404543490
H         6.36798804865383   11.48615537641499   -1.90911406891392
H         7.58553482510208   10.49522944349402   -1.10465967109506
H         6.14905500035355    9.73988152777261   -1.79558612556785
H         4.72017857856376   10.93521801605617   -0.13659438461740
H         6.15478016600017   11.68992997760011    0.55773317920518
H         5.61195492921740    8.69156464050209    0.46035881972861
H         7.04068701978616    9.45030321465817    1.16434639209600
H         5.57928141384401   10.66455298858011    2.77748266091529
H         4.17103599197604    9.90652060817482    2.07483237172785
C         4.02887448985839    8.39330811565888    4.81610929619865
C         4.12192164849747    9.62164496100077    5.71962592650565
C         2.82740023950164    9.89008358310384    6.49071818640429
C         2.40091831767856    8.72966914276671    7.38236127300399
H         2.11495265150778    7.86715483727517    6.78652056526205
H         1.54741536900212    9.01617461340522    7.99321352295416
H         3.21314831187727    8.43994571325739    8.04454057213445
H         2.96884880425799   10.78120473502547    7.10707647040665
H         2.02833858096606   10.10659417610594    5.77754058684416
H         4.34462336386087   10.50314577979561    5.11516443359429
H         4.94289146796796    9.49247744897379    6.42653163006878
H         3.06824141345728    8.42702989532787    4.29804748293843
H         4.01846768774121    7.49668133961643    5.43568742740916
C         7.16863984683489    8.27312600978878    4.27485152462817
C         7.56567142188007    6.93706150840616    4.90085140003644
C         8.97908405690325    6.97213220219616    5.47869024054544
C         9.40317736499089    5.62192957426730    6.04386863225494
H         9.35305214037809    4.85174910140126    5.27672202800553
H         8.75178735923253    5.32609570085456    6.86333661689824
H        10.42249989604740    5.66725404011794    6.41991736040767
H         9.67881234450212    7.26898098260319    4.69350248618954
H         9.02797055317448    7.72738585794160    6.26635178097702
H         7.50710925628581    6.15077653675019    4.14446020852525
H         6.85935082810976    6.68252439233447    5.69280252628189
H         7.90428107852477    8.53046594722784    3.51054357229394
H         7.23859279885962    9.05321920588117    5.03440895720464
H         7.01438245659184    6.76506475106153    1.47109372773975
H         6.67433354764835    4.69421847509864    0.21687401833155
C         4.86268337852722    3.10796375596853   -1.41063961609981
C         5.31450056922576    2.18419036967045   -2.34797587840140
C         5.52460597029235    2.57004412219072   -3.65797848881403
C         5.27075049706626    3.86930849349298   -4.08698684725792
C         4.73934351032416    4.75860269836638   -3.15584012196965
C         4.54313342129083    4.39520541272332   -1.83874709213184
H         4.15460002057962    5.11723035792950   -1.13424851856216
H         4.47616079238240    5.75702575206985   -3.46750935080523
Si        5.62274496223865    4.48560887237059   -5.86102259414432
C         6.84418742288911    3.35285956748269   -6.81455591975428
C         8.33292268031430    3.54448815498030   -6.52277014010662
C         8.74981162506439    3.10306297253952   -5.11949348167885
C         8.86657705707238    1.58833489452445   -4.99087961210853
H         7.93463695605514    1.09865792068237   -5.25999972832488
H         9.64752834425101    1.21142853655020   -5.64769671314160
H         9.11451932583042    1.30913139355040   -3.96897384187422
H         8.02658638650935    3.47948007863120   -4.39364146324952
H         9.72105747149428    3.54416756700754   -4.88220500346626
H         8.58114590650361    4.59819200973729   -6.65742721473099
H         8.91958508342232    2.97944242007813   -7.25254456109150
H         6.57826000447921    2.30621241970365   -6.66508914276925
H         6.68790823618729    3.54451332297583   -7.87774430574251
C         3.94383294452706    4.45295664112578   -6.76670445198137
C         3.88973009972888    5.30050093600918   -8.03485813005329
C         2.55663033633463    5.13610461230653   -8.76356159367830
C         2.44350339461040    6.06074505812351   -9.96910201491255
H         1.48045204001533    5.93717527397248  -10.45943015504777
H         2.54312745818392    7.10090653078749   -9.66690474232748
H         3.22668820779945    5.84195165796696  -10.69158651755044
H         1.74048609304629    5.34470242256503   -8.06654975058572
H         2.45377321297756    4.09857950980786   -9.08824645408115
H         4.70007380728450    5.01661430509814   -8.70936797996894
H         4.03259790736707    6.35115333399465   -7.77649723462159
H         3.16818278731965    4.79687278593271   -6.08442536233333
H         3.68283852760228    3.42555259323786   -7.02311053636037
C         6.25457038409655    6.28900986909950   -5.72711809295073
C         7.29121596133722    6.55449828520815   -4.63598614633988
C         7.64903089778111    8.03658007981764   -4.54124043966276
C         8.68807168424830    8.29970613281627   -3.45825180587015
H         9.60619617846386    7.75531987262301   -3.67018253740540
H         8.92219100843485    9.35999499980966   -3.40209958679212
H         8.31596110793047    7.97770193789131   -2.48772809795792
H         8.03523615408245    8.37724384366890   -5.50443393159925
H         6.74626962618473    8.61267319300247   -4.32659846530953
H         6.90459551351093    6.21951866067662   -3.67079593206387
H         8.19833676590037    5.98349080263148   -4.83810114759630
H         6.67296970452020    6.59439284162639   -6.68765915639987
H         5.39804028431880    6.94327887023450   -5.55348946382466
H         5.89865651188212    1.84517697836830   -4.36387005826192
H         5.51357774745371    1.16864675652342   -2.03719496838766
Cr        3.10187757673178    0.90881381153674    1.17601450655008
C         7.32031852730880    1.85483286061713    0.29053817400534
C         8.27952733562683    2.29578808446389    1.39202978268925
H         8.04637494478042    3.29681959927019    1.74490567273083
H         9.29678446547804    2.29675063090925    1.00805283507238
H         8.22356596037559    1.60233105891601    2.22828196551601
C         7.86373687426878    0.59016079987971   -0.38025463386371
H         8.69194398806412    0.85756397837729   -1.03223350788118
H         8.22308562505131   -0.11986268742060    0.35853545503748
H         7.09684592626599    0.10488473417450   -0.97709084970966
H         7.26107970722961    2.64053937962561   -0.47459786416533
C         5.53314346999853    1.34282303726235    3.60343601291771
C         4.96641808650783    0.60016413434255    4.64002286285520
C         4.81980910374119    1.15752476490477    5.89073128710326
C         5.23955381877978    2.45976830969448    6.15596533582986
C         5.80765748616401    3.18546614710747    5.11707769700859
C         5.93787910190917    2.64734962802400    3.84968622476548
H         6.33583405093874    3.25091225613239    3.04948998049753
H         6.13221932370208    4.20087613177553    5.28636490708433
Si        4.97360573643088    3.16000950777466    7.90360095168390
C         3.09566122823464    3.09537627142380    8.29534761398148
C         2.17160903169025    3.22720356720373    7.08513048165631
C         2.25981398608288    4.59555722904571    6.41808503458768
C         1.22854343634952    4.75008342973479    5.30611678265749
H         1.41324478982189    4.02573675380776    4.51667656749744
H         0.22311652823471    4.59355776843356    5.69330504825286
H         1.26960164173185    5.74689645814805    4.87362968687626
H         2.10408066335592    5.37065455438095    7.17227959434489
H         3.26067250566677    4.72292982482969    6.00131965305270
H         2.42343662938886    2.45947476453059    6.35095907157849
H         1.13928958428278    3.05884647925696    7.40761899539455
H         2.83985643991869    3.87185053462771    9.01755052426403
H         2.87997371876137    2.14371136255971    8.78335830067605
C         5.89573396874349    2.00000688409025    9.11251452831803
C         7.41039518292231    2.00771776979632    8.91073505234624
C         8.15933234836443    1.15111730276128    9.93342294398881
C         7.90841221250807   -0.34210646759763    9.76513874838829
H         8.51211986118948   -0.90839309343111   10.47072378306858
H         6.86438760596699   -0.58592825054248    9.94158895671897
H         8.16846434075277   -0.65700611480083    8.75786114638880
H         7.86862011465974    1.45871175548190   10.94116996222865
H         9.23042926757601    1.34135684071931    9.82815259806205
H         7.63789901713539    1.64773660132177    7.90551515930622
H         7.77860629026231    3.03292120514504    8.98668501620451
H         5.53154574542198    0.98153525804131    8.98232119040583
H         5.67310131949640    2.27850571856014   10.14408614552759
C         5.70172461749660    4.92694637144380    8.00503305021140
C         5.78935557324807    5.47040736989944    9.43095088497358
C         6.69993022140734    6.69470678579107    9.55265181786266
C         6.17246978056662    7.91965368007062    8.81699942325256
H         6.08674375767941    7.72624231988105    7.75095657108102
H         5.19316893374289    8.19800616492813    9.20104989818820
H         6.84448167161716    8.76377515816116    8.95649224932578
H         6.81433420105521    6.94136160370500   10.61102616325951
H         7.69054600121424    6.44110669246543    9.16678497416890
H         4.78893097938762    5.72478531190137    9.78625322186205
H         6.18242314783352    4.69453237987815   10.08939455045044
H         5.12567805184849    5.62058924434195    7.39277124262434
H         6.70981911788742    4.90269809577864    7.58776277649723
H         4.35282006874039    0.59047903058407    6.67927526694422
H         4.61456985001197   -0.40402390316802    4.42739529072619
C         6.31736058163423   -0.88681176606477    1.93836348122200
C         6.00891958059581   -1.83541904448364    0.96804557448668
C         6.80323835311701   -2.95202908321575    0.81281743814942
C         7.92875461010267   -3.15811902518253    1.60669912188259
C         8.17984596032375   -2.23389246863952    2.61949458160295
C         7.38445348286379   -1.11710078962289    2.80189646364767
H         7.59725171478426   -0.41513303710973    3.59768312297568
H         9.02381370111538   -2.38587161726927    3.27491511564875
Si        9.13676523854048   -4.59074370799261    1.22787509542120
C         8.44842591235447   -5.61650037687829   -0.23225332443510
H         8.95263555215455   -6.58288123341474   -0.26713545141406
C         8.58932035267017   -4.95124380442644   -1.60018122135608
C         7.89996402015041   -5.75814027040668   -2.69886622934931
C         8.06760882759102   -5.11518899184143   -4.07042549056277
H         9.12115208645484   -5.04752810346374   -4.33276564265143
H         7.65113617845547   -4.10943417817800   -4.07591593230994
H         7.56171194306035   -5.70121585946219   -4.83416534211751
H         8.31739904785030   -6.76669283752027   -2.71744427162902
H         6.83644746289756   -5.84915468057498   -2.46545521284820
H         9.64750831067300   -4.84796454395531   -1.84579263115182
H         8.16530830885537   -3.94451953687578   -1.57336753795327
H         7.39585034934928   -5.84196257587557   -0.05429847215683
C         9.41375078579347   -5.77221848236487    2.70014030751748
C        10.25305980286098   -5.20573674388620    3.84285034857567
C        10.50942013306779   -6.24862251561855    4.92829270467066
C        11.33761912858315   -5.67875050092016    6.07305140123491
H        12.30616080251538   -5.33611822407096    5.71314159873672
H        11.50216467680046   -6.43383653039378    6.83786470972719
H        10.82200220230842   -4.83519068445936    6.52669266666428
H        11.02776043212855   -7.10673903484347    4.49357246598970
H         9.55282643826523   -6.59924849128489    5.31750341283062
H        11.21061962377120   -4.84810206798013    3.45959485442477
H         9.73564495135534   -4.35742484744362    4.29019013922523
H         8.45052631825212   -6.08564832097478    3.10084307742837
H         9.90134843838540   -6.67624135603420    2.32933931978144
C        10.77715434589474   -3.72490170872050    0.73937135226854
H        10.61339159359071   -3.06411391844520   -0.11460910785564
C        11.89275238366860   -4.71015184734636    0.39429103011393
H        11.55811152977620   -5.35572996034291   -0.41962792762215
C        13.19356624624639   -4.02524684287434   -0.02922701384769
C        13.88236835006953   -3.29069958909778    1.11528768230595
H        13.26970410517431   -2.47008878605318    1.47993285889834
H        14.07321578121221   -3.97177367575259    1.94189349828418
H        14.83368600825522   -2.88046343659310    0.78373667360022
H        13.87630959673901   -4.78379224569523   -0.41959029859565
H        12.98401144737500   -3.32161492051272   -0.83883813745675
H        12.09309252505562   -5.35038939015568    1.25431451858665
H        11.10314110066145   -3.08747883371115    1.56140887813071
H         6.54407072902343   -3.67815242647050    0.06051107956325
H         5.14377127398241   -1.68341034127839    0.33696788990114
N         3.50627903532981    0.03728816445906   -0.46152465401536
C         3.41534643668929   -0.51979873563158   -1.46695221731175
C         3.28841825100952   -1.20345705302607   -2.70536597123312
H         3.27610518476829   -0.46842345945127   -3.51034615644474
H         2.34219918270913   -1.75161834422137   -2.70662820550756
H         4.11601811081505   -1.89775426760128   -2.84838130907098
P        -1.77107652460881   -2.38278560190813    1.32948796493147
N        -2.92097893778823   -1.07332406762569    1.28791635438465
P        -2.17794957172319    0.12452169457138    0.30659581165436
C        -3.04695008015403    0.21506825072372   -1.28813910799523
C        -4.40320366338133    0.52578333270689   -1.33961890103408
C        -5.08372798201768    0.40587304775479   -2.53354911532697
C        -4.44179122049527    0.01394412508279   -3.70595333124134
C        -3.06640971756221   -0.18608216237550   -3.65420080967225
C        -2.37136835639716   -0.09763417349511   -2.46340445313933
H        -1.30695900726263   -0.29269106194256   -2.43565193746138
H        -2.52794934712003   -0.43839985368688   -4.55333422699281
Si       -5.47223034524472   -0.36903850682667   -5.26492059017016
C        -6.29657097061763    1.20268410278562   -5.96666530918558
C        -6.91641250853772    2.12442529617148   -4.91835978552824
C        -7.45092876732070    3.41138373520054   -5.54303541992649
C        -8.17819873467640    4.27826108127199   -4.52240415508425
H        -8.49565929500964    5.21647409086526   -4.97075463304131
H        -9.05957583311707    3.76467274683342   -4.14301546591509
H        -7.53090440773991    4.50348176536422   -3.67897525985917
H        -6.61464504792421    3.96919058990675   -5.96944655744778
H        -8.13547536716185    3.16255370697348   -6.35724765944475
H        -6.16382095035969    2.38463061569791   -4.17311072251464
H        -7.73210572957901    1.60769679404519   -4.40679746299530
H        -7.07007928830714    0.91340380777789   -6.68026660063884
H        -5.56535819334614    1.77799580103784   -6.52962164230485
C        -4.29335571238302   -1.18935825619665   -6.52534555446618
C        -4.95158318192632   -1.51106085971992   -7.86525303268489
C        -3.94635025583442   -1.92918848476150   -8.94055691796735
C        -3.18088211693705   -3.20160256918238   -8.59674033589164
H        -2.54333145787115   -3.05311746014618   -7.72927314136880
H        -2.55005664883026   -3.49721374041213   -9.43204683505417
H        -3.87090993536612   -4.01482057491542   -8.38242267860587
H        -4.48692977553749   -2.08341663729399   -9.87720061031683
H        -3.23750590162495   -1.11551233271254   -9.10328505830684
H        -5.48019860027149   -0.62632504030721   -8.22257817299349
H        -5.68688148739740   -2.30667921613907   -7.72942078357127
H        -3.45175105733636   -0.52270970478571   -6.71587641702887
H        -3.87564025966929   -2.10388122518151   -6.10226237219589
C        -6.82445197583154   -1.61456712766562   -4.69321022806387
C        -6.38514393371671   -2.53473502232295   -3.55548920357704
C        -7.46562652516636   -3.53645025118350   -3.15236986624574
C        -7.10532698047152   -4.26495026953094   -1.86179816389192
H        -7.07637391766913   -3.56596722180837   -1.02850287259337
H        -6.12557095655514   -4.73250992611358   -1.94081967793469
H        -7.83979192822965   -5.03500562372190   -1.63718475683227
H        -8.41246381467042   -3.00958121208976   -3.01337735618374
H        -7.60855256815581   -4.25963879023955   -3.95788990510715
H        -6.12227708416138   -1.93088716033486   -2.68483752764548
H        -5.48727803315858   -3.07912363873764   -3.85198491422710
H        -7.71360522466325   -1.06890383765776   -4.37345267778438
H        -7.13706605603311   -2.22661861200328   -5.54054579034236
H        -6.14200508605026    0.61392518357603   -2.55209689609757
H        -4.92278952072502    0.85633748828026   -0.45195243097147
C        -2.51811631278161    1.76869748587512    0.96977095462931
C        -2.86053226825569    2.04992730029971    2.28630226508835
C        -3.05734718248432    3.36102036928732    2.67405364525499
C        -2.92550852783102    4.42033226447275    1.77931138069982
C        -2.52320023408346    4.12291484683398    0.48077280746284
C        -2.31099622101947    2.82064763709049    0.07782459400093
H        -2.00256953584166    2.59904440466577   -0.93491529995016
H        -2.38915554123564    4.92617531776903   -0.22830029585911
Si       -3.36614208561625    6.19452230297386    2.33298006468978
C        -5.08093432332272    6.11516705950776    3.18894089868003
C        -6.27256661238665    6.03669583747546    2.23118213331873
C        -6.29394843551510    4.79688851190643    1.33957078755161
C        -6.54858197712911    3.50446609278835    2.10472242342084
H        -5.73300507183513    3.29060908162079    2.79073197446378
H        -7.47357209918758    3.57329921003983    2.67334438748303
H        -6.63375333803343    2.67097786127974    1.41072115635381
H        -5.34645107782800    4.71415201285841    0.80540521692580
H        -7.08134502867754    4.92397244142881    0.59434703731063
H        -6.26642365160484    6.91943030891331    1.59011728785099
H        -7.19838484051304    6.06343712499031    2.81272088774883
H        -5.12155413797090    5.27440842204295    3.88131017294595
H        -5.20578349043200    7.01154161341559    3.79851028027966
C        -1.98909667565131    6.67941634328418    3.57261323482976
C        -2.22437615789721    8.01116550957050    4.28040058575476
C        -1.04776314729288    8.40253736140844    5.17278180848898
C        -1.29581717596662    9.72404869989014    5.88907903003454
H        -0.45019175449624    9.98466603262155    6.52067673394113
H        -1.44652634289519   10.52536534475547    5.16888971905353
H        -2.18347934948570    9.65745773536959    6.51449879677948
H        -0.14583422522408    8.48402030647409    4.56121893283335
H        -0.87606015493914    7.61539908373943    5.91079975554393
H        -3.12761456835804    7.94541943622126    4.88987213277846
H        -2.38639333789529    8.79678093105656    3.54058182088842
H        -1.03974942189640    6.72802073392325    3.03639705818054
H        -1.87035430506265    5.89855408627222    4.32599742895411
C        -3.46905092331541    7.39760505117832    0.85341289487343
C        -2.13522202255569    7.99681891104562    0.41067333701972
C        -2.29575338879773    8.89778494410467   -0.81188207027765
C        -0.97783090061056    9.54575848471474   -1.21537568626145
H        -0.23841696519171    8.78319439063832   -1.44491718740984
H        -1.11447538054844   10.16741800358994   -2.09651128654506
H        -0.59325106256789   10.16730474446004   -0.40913845441626
H        -2.67179310533257    8.30686707569365   -1.64887623631374
H        -3.03348258950765    9.67417014973656   -0.59546114679391
H        -1.71033109471923    8.58065378603917    1.22890187039007
H        -1.42556233792512    7.20346184666684    0.17822137576810
H        -3.92938938141348    6.89403071012554    0.00109035647893
H        -4.14157219965001    8.21784531130027    1.11196729343452
H        -3.33303499295587    3.57187297430872    3.69751962983120
H        -2.99329278101339    1.24169426729722    2.99091421699996
Cr       -0.09823125095035   -0.86351972850603    0.59464813312971
Cl        0.89669765837633    1.18718623283960    0.30152483264769
Cl        2.04632568191031   -1.11323916491150    1.70309845153459
C        -4.32271478734970   -1.01415238096456    1.71752984733632
C        -5.20784923732822   -2.00734150248336    0.97283755754170
H        -5.17236784916121   -1.82461259194869   -0.09854424359541
H        -6.23569198274380   -1.90763155475154    1.31336385225192
H        -4.87402794522671   -3.02569434700827    1.15938848218949
C        -4.45908091680943   -1.19117040748924    3.23120768191502
H        -5.39255857588994   -0.74636299463363    3.56742064687450
H        -4.45875443452281   -2.24045285385268    3.50610844118994
H        -3.63455503660815   -0.70859473821034    3.75114955554565
H        -4.64900533468241    0.00503030485343    1.46950470451083
C        -2.39973080337762   -3.64452051965813    0.18349407259201
C        -2.28774991119661   -5.01190312020931    0.41356661113987
C        -2.58308896851614   -5.90718978399484   -0.59898351852984
C        -2.99610513538971   -5.48575959531151   -1.85928835768204
C        -3.13575199075280   -4.11485516366062   -2.05916321219397
C        -2.82892801842563   -3.20916608288683   -1.06769103805907
H        -2.91011307105315   -2.15045749133485   -1.26716480963692
H        -3.46582796354667   -3.73954579194218   -3.01460024277330
Si       -3.21590481104583   -6.71452239114055   -3.30269446475564
C        -1.53825979488089   -6.81202130236223   -4.23083383215147
C        -0.70415545015111   -5.52986825569901   -4.21199798045336
C        -1.26334976316566   -4.44435808393240   -5.12624189963834
C        -0.50461211146609   -3.13195077131897   -4.97026739302818
H        -0.58111504273384   -2.77117935506384   -3.94639896661831
H         0.54771804750133   -3.27167151501035   -5.20881436296977
H        -0.90532851742188   -2.37078262995840   -5.63585312305201
H        -1.20519167973442   -4.78206734259010   -6.16352543317035
H        -2.31601814002432   -4.28341179783160   -4.89197158345092
H        -0.64916055534869   -5.14625618462649   -3.19072458132586
H         0.31617368560151   -5.75949842595032   -4.53076098265791
H        -1.69894764913040   -7.11043853701309   -5.26752755926381
H        -0.94787894984094   -7.60818712125368   -3.77365492185475
C        -3.60136522125099   -8.43445857054748   -2.56494410776200
C        -4.90886100905277   -8.47565403459566   -1.77594905829710
C        -5.14491019862690   -9.81365486278009   -1.07177216041722
C        -4.21410444277362  -10.03566737131931    0.11504872332291
H        -4.45972251726490  -10.96752112489757    0.61874058847596
H        -3.17596458787035  -10.09134324733992   -0.20267976949738
H        -4.31190086759636   -9.22266666740290    0.83192601958877
H        -5.01848029232691  -10.62629559708085   -1.79059655515352
H        -6.17786298366920   -9.84512171255959   -0.71660065580991
H        -4.91425706292235   -7.67697509101265   -1.03059204324763
H        -5.73826879199694   -8.28828113941972   -2.46043486110834
H        -2.77950054323677   -8.74139450415929   -1.91847393497933
H        -3.64738508237448   -9.17805244513895   -3.36155737838275
C        -4.67959232900066   -6.13455633069244   -4.39089227456932
C        -5.04744174286751   -7.11577766597216   -5.50298895792804
C        -6.36788252146425   -6.76103739744552   -6.19043148816382
C        -6.31193990819413   -5.45120027052531   -6.96689767732412
H        -6.10929544717280   -4.61172497276583   -6.30681458939037
H        -5.53049807318823   -5.49479881547349   -7.72259320861498
H        -7.25987725921732   -5.26780921006298   -7.46823649574259
H        -6.63154741480302   -7.56773852538993   -6.87848950392780
H        -7.15677200724355   -6.70252759315061   -5.43614752165540
H        -4.24897883853651   -7.14293572325917   -6.24659674468006
H        -5.14014573363006   -8.11895853276262   -5.08352358205974
H        -4.46597113074018   -5.16537674231434   -4.84030729966742
H        -5.55664999555753   -5.99556214593810   -3.75704349690147
H        -2.46965493285988   -6.96186182718221   -0.40304079930999
H        -1.95780653690608   -5.37827814252090    1.37136534975760
C        -1.75331350942972   -3.14424243456181    2.97207220098473
C        -0.61129057892869   -2.93480772184662    3.74025568817310
C        -0.48700135286267   -3.51552232643698    4.98646746980075
C        -1.49218850100100   -4.31888969216919    5.51430963526897
C        -2.61181198490164   -4.55270676139119    4.71889438252032
C        -2.74360097995885   -3.99329157208362    3.46179653051918
H        -3.60778076705108   -4.22494443987551    2.85409438576564
H        -3.39373497795229   -5.19908182053187    5.08745081133336
Si       -1.28452187861089   -5.09605756025180    7.24823979649215
C        -0.02166371100126   -4.04130567372135    8.21797972966023
H         0.16046873164638   -4.48866362711244    9.19528869436932
C        -0.44893827163083   -2.58711516811225    8.41204459431180
C         0.66592370936000   -1.74061737702690    9.02405162843906
C         0.24384657358509   -0.29002558337916    9.22605400765718
H        -0.62261453402943   -0.23112470929429    9.88150856976645
H        -0.01511980754103    0.17175325143752    8.27475597056255
H         1.05138919230386    0.28432992456924    9.67373454170126
H         0.95334810709943   -2.17072499290624    9.98529819364608
H         1.54063414850912   -1.77462202859972    8.37240875472117
H        -1.32730585092418   -2.54993122310618    9.05950801820615
H        -0.73770809363784   -2.15827805577023    7.44857119124919
H         0.93891272732889   -4.06167441117945    7.70201849829029
C        -0.63274280985012   -6.87712332331798    7.04552161624002
C        -1.51974193012330   -7.75762266048022    6.16804839344834
C        -0.91904462240597   -9.14553732133267    5.95988646714483
C        -1.82358610751107  -10.03626512997729    5.11738643937910
H        -2.78714024916506  -10.17538821711698    5.60406644193329
H        -1.36718923384516  -11.01230140673535    4.97315462237764
H        -1.99351881933262   -9.58801116789673    4.14060535475304
H        -0.74707853877200   -9.61770177344254    6.92966006863548
H         0.04566856435802   -9.03858070464684    5.46148424344029
H        -2.50578663616517   -7.85789348846509    6.62690310947699
H        -1.64981604295330   -7.28089349668755    5.19448464676869
H         0.36419079254856   -6.84416014092856    6.60627516993993
H        -0.52360714505448   -7.34562404787758    8.02454744203965
C        -3.00651049568513   -5.06370819150171    8.08557588935076
H        -3.41429255485845   -4.05064297241835    8.07513169893268
C        -2.97124554719111   -5.56620684324464    9.52781527194013
H        -2.27077666707384   -4.95532168332770   10.09978198450839
C        -4.33584570427406   -5.51735630815605   10.21775845777405
C        -5.33231236735832   -6.51966230856601    9.64659968622173
H        -5.57079902966499   -6.29057867834695    8.61093146185019
H        -4.92398539745014   -7.52690918188802    9.69164552832324
H        -6.25785641616457   -6.49978453445073   10.21751571867476
H        -4.19645726451249   -5.72945838362837   11.28038366777858
H        -4.74684654807749   -4.50816586116828   10.13395464970840
H        -2.60103661591109   -6.59225068732879    9.54549266656426
H        -3.69976233061524   -5.68096161254609    7.51479309482630
H         0.41572285096063   -3.35546783469323    5.55158840045119
H         0.19526447230700   -2.33350129451442    3.34450799708674
N        -0.47389759005547   -0.11978796300425    2.37947806412115
C        -0.41702494248305    0.33771958067668    3.43583342918276
C        -0.28128901374983    0.87463371129910    4.74250845618823
H        -1.13383958630560    1.50401289830774    4.99303321221766
H         0.63291120507584    1.47637494766636    4.76318168118541
H        -0.19215871575980    0.06049103137617    5.46280392689672
Cl        2.49760681975282    1.83883097234280    3.04539245747156
Cl        0.29630039424776   -1.90981168652741   -1.15220191888501
C         0.62696973275469    5.01241824855575   -1.31141975234582
F         0.66481404840816    5.91708301645268   -0.32407507196782
C        -0.17140656337813    5.20289853146122   -2.42975202518647
F        -0.86602283391813    6.34858164752677   -2.47364396290958
C        -0.25984627276624    4.29264409769423   -3.48361902868337
B        -1.16369575614583    4.72490101072244   -4.78548299248998
C        -0.42233240793052    5.95014970686956   -5.59450045848514
C         0.82288354661066    6.49700658078874   -5.31006544311241
F         1.55539289958802    6.07984209681086   -4.25691511907404
C         1.41895943913860    7.48572534866853   -6.08781397868588
F         2.62700656555972    7.95975203165161   -5.74582847378721
C         0.77491624166580    7.96809046696107   -7.21592467626983
F         1.33779783720921    8.91865252504953   -7.96851367958650
C        -0.45906785484034    7.42701351155069   -7.55632051483737
F        -1.09203733595313    7.84814756497403   -8.65664345916209
C        -1.01888311167646    6.43906100071957   -6.75690215529695
F        -2.20053618766139    5.93836702665746   -7.15057526054652
C        -1.29330135563762    3.56628499969518   -5.93584597633184
C        -2.47763120749228    3.06569896418159   -6.46265517563104
F        -3.66598848348651    3.42954265136770   -5.95848674301362
C        -2.51111863268344    2.19069259969903   -7.54557682739614
F        -3.68424007054570    1.76757546727187   -8.03726264760104
C        -1.33138337447801    1.76005508990809   -8.13429381661228
F        -1.35797438118325    0.90143735767787   -9.16054216560977
C        -0.12654734216022    2.24178975115304   -7.64154367808932
F         1.03199816733971    1.85432744507746   -8.19394069871611
C        -0.13664780324671    3.13791288949594   -6.58257200090226
F         1.05278723479117    3.60603849803744   -6.17373108396946
C        -2.60807812854571    5.13266481048199   -4.12786918632131
C        -3.21520487070099    6.38229332776819   -4.15703895725357
F        -2.66856457553470    7.39799106787601   -4.83639620186826
C        -4.38648717097647    6.67102308768327   -3.45910156997108
F        -4.92231617562225    7.89552136969108   -3.51899601100634
C        -4.98592733777757    5.69604901790171   -2.67588687156959
F        -6.09192453880807    5.96790861275514   -1.97041668465590
C        -4.40765971554815    4.43503888536260   -2.61676102712441
F        -4.95987827314945    3.48285836405313   -1.84493097343744
C        -3.25037911183540    4.18229204985752   -3.33742176877750
F        -2.72045152316252    2.94721833871679   -3.23314861439065
C         0.48727711557564    3.13257853919790   -3.31874279136591
F         0.40874052681039    2.11443803912571   -4.18716048957191
C         1.35320097018121    2.94210945735328   -2.24593442151525
F         2.13824330572785    1.84902241671710   -2.19532583060742
C         1.41637016197496    3.87828142171393   -1.23099225920661
F         2.22367511835212    3.69226982245085   -0.16497225994719
C         2.73313189952213   -9.37648995118382    6.41782309404282
F         2.41993344421779  -10.61707093761658    6.02279731430038
C         3.33518078635707   -8.49000417522867    5.53603272125531
F         3.55083507307309   -8.93967204712452    4.28660427858608
C         3.68925225095739   -7.18194902186037    5.86902316763164
B         4.40216058423862   -6.25095993447331    4.71745127654970
C         3.31080594909122   -5.75367897343545    3.59474979507040
C         1.96136399377234   -6.07787311099123    3.57495700639294
F         1.43399259161805   -6.94526208533065    4.44738228845407
C         1.05299918018607   -5.50846162936704    2.68920927860353
F        -0.24066715894924   -5.85320917490182    2.76433365634528
C         1.48488224162352   -4.59918834200970    1.74061354285927
F         0.60082224905507   -3.98519059964699    0.91986066201811
C         2.83832812484296   -4.29512062721096    1.67941502720952
F         3.29453434425870   -3.48236511022587    0.71286571750637
C         3.70388369902108   -4.83545390662158    2.62138027640910
F         4.98331104355648   -4.43028874618813    2.57507043951029
C         4.98973724903878   -4.84121646250847    5.32628262051323
C         6.32874887557282   -4.49167567503409    5.44484689550689
F         7.29685240114667   -5.32219915337596    5.04552885226460
C         6.76038678904668   -3.27504397187292    5.96550899890983
F         8.07094579114463   -3.00186064763271    6.03806846231969
C         5.83995550544041   -2.34115861379032    6.41067339351901
F         6.25027010897947   -1.18459301048457    6.94399084653518
C         4.49027192739628   -2.63814689716433    6.28463065487164
F         3.55886912955089   -1.75495923127123    6.68526048499523
C         4.10022204064468   -3.85132658216956    5.73737664272822
F         2.77185189833137   -4.05058016596115    5.63094178604948
C         5.58593767967816   -7.19661937043428    4.08931974997180
C         5.79923740028424   -7.49031563314694    2.74879760167296
F         5.00790674658399   -6.98127337704753    1.78745554921020
C         6.81848211636648   -8.32863908239934    2.30454510669609
F         6.97669648910038   -8.54942448451718    0.99147805339712
C         7.67022350281716   -8.93327864405937    3.21529225055100
F         8.65845305264108   -9.73257710088716    2.79904002414883
C         7.47537515462460   -8.68991884610315    4.56901233677828
F         8.27100789376297   -9.27111194168883    5.47511791865081
C         6.45187546179325   -7.84342473203074    4.97175298751528
F         6.32147060570680   -7.64142565731790    6.29471751269713
C         3.41274782961561   -6.82551218528667    7.18271854798574
F         3.73231995820928   -5.60935922774352    7.65825976065937
C         2.79524934859612   -7.68024721164080    8.09263344482722
F         2.52781826763184   -7.25265083213235    9.33481715978906
C         2.44911774673366   -8.96750050784051    7.71450458580563
F         1.84804918666053   -9.79484026678598    8.57665419321189
